WIDTH=8;
DEPTH=390;

ADDRESS_RADIX=HEX;
DATA_RADIX=HEX;

CONTENT BEGIN
    00  :  07;
    01  :  07;
    02  :  07;
    03  :  07;
    04  :  07;
    05  :  07;
    06  :  07;
    07  :  07;
    08  :  07;
    09  :  07;
    0A  :  07;
    0B  :  07;
    0C  :  07;
    0D  :  07;
    0E  :  07;
    0F  :  07;
    10  :  07;
    11  :  07;
    12  :  07;
    13  :  07;
    14  :  07;
    15  :  07;
    16  :  01;
    17  :  07;
    18  :  01;
    19  :  07;
    1A  :  07;
    1B  :  07;
    1C  :  07;
    1D  :  07;
    1E  :  07;
    1F  :  07;
    20  :  01;
    21  :  01;
    22  :  01;
    23  :  01;
    24  :  07;
    25  :  07;
    26  :  07;
    27  :  07;
    28  :  07;
    29  :  07;
    2A  :  07;
    2B  :  01;
    2C  :  07;
    2D  :  01;
    2E  :  01;
    2F  :  01;
    30  :  07;
    31  :  07;
    32  :  07;
    33  :  07;
    34  :  07;
    35  :  07;
    36  :  07;
    37  :  01;
    38  :  07;
    39  :  01;
    3A  :  07;
    3B  :  07;
    3C  :  07;
    3D  :  01;
    3E  :  01;
    3F  :  01;
    40  :  01;
    41  :  01;
    42  :  01;
    43  :  01;
    44  :  07;
    45  :  07;
    46  :  07;
    47  :  07;
    48  :  07;
    49  :  07;
    4A  :  07;
    4B  :  01;
    4C  :  07;
    4D  :  01;
    4E  :  07;
    4F  :  07;
    50  :  07;
    51  :  07;
    52  :  07;
    53  :  01;
    54  :  07;
    55  :  01;
    56  :  01;
    57  :  01;
    58  :  07;
    59  :  07;
    5A  :  07;
    5B  :  07;
    5C  :  01;
    5D  :  01;
    5E  :  01;
    5F  :  01;
    60  :  07;
    61  :  07;
    62  :  07;
    63  :  07;
    64  :  07;
    65  :  07;
    66  :  01;
    67  :  07;
    68  :  01;
    69  :  07;
    6A  :  07;
    6B  :  07;
    6C  :  07;
    6D  :  07;
    6E  :  07;
    6F  :  07;
    70  :  07;
    71  :  07;
    72  :  07;
    73  :  07;
    74  :  07;
    75  :  07;
    76  :  07;
    77  :  07;
    78  :  07;
    79  :  07;
    7A  :  07;
    7B  :  07;
    7C  :  07;
    7D  :  07;
    7E  :  07;
    7F  :  07;
    80  :  07;
    81  :  07;
    82  :  07;
    83  :  07;
    84  :  07;
    85  :  07;
    86  :  07;
    87  :  07;
    88  :  07;
    89  :  07;
    8A  :  07;
    8B  :  07;
    8C  :  07;
    8D  :  07;
    8E  :  07;
    8F  :  07;
    90  :  07;
    91  :  07;
    92  :  07;
    93  :  07;
    94  :  07;
    95  :  07;
    96  :  07;
    97  :  07;
    98  :  05;
    99  :  07;
    9A  :  05;
    9B  :  07;
    9C  :  07;
    9D  :  07;
    9E  :  07;
    9F  :  07;
    A0  :  07;
    A1  :  07;
    A2  :  05;
    A3  :  05;
    A4  :  05;
    A5  :  05;
    A6  :  07;
    A7  :  07;
    A8  :  07;
    A9  :  07;
    AA  :  07;
    AB  :  07;
    AC  :  07;
    AD  :  05;
    AE  :  07;
    AF  :  05;
    B0  :  05;
    B1  :  05;
    B2  :  07;
    B3  :  07;
    B4  :  07;
    B5  :  07;
    B6  :  07;
    B7  :  07;
    B8  :  07;
    B9  :  05;
    BA  :  01;
    BB  :  05;
    BC  :  07;
    BD  :  07;
    BE  :  07;
    BF  :  05;
    C0  :  05;
    C1  :  05;
    C2  :  05;
    C3  :  05;
    C4  :  05;
    C5  :  05;
    C6  :  07;
    C7  :  07;
    C8  :  07;
    C9  :  07;
    CA  :  07;
    CB  :  07;
    CC  :  07;
    CD  :  05;
    CE  :  01;
    CF  :  05;
    D0  :  07;
    D1  :  07;
    D2  :  07;
    D3  :  07;
    D4  :  07;
    D5  :  05;
    D6  :  07;
    D7  :  05;
    D8  :  05;
    D9  :  05;
    DA  :  07;
    DB  :  07;
    DC  :  07;
    DD  :  07;
    DE  :  05;
    DF  :  05;
    E0  :  05;
    E1  :  05;
    E2  :  07;
    E3  :  07;
    E4  :  07;
    E5  :  07;
    E6  :  07;
    E7  :  07;
    E8  :  05;
    E9  :  07;
    EA  :  05;
    EB  :  07;
    EC  :  07;
    ED  :  07;
    EE  :  07;
    EF  :  07;
    F0  :  07;
    F1  :  07;
    F2  :  07;
    F3  :  07;
    F4  :  07;
    F5  :  07;
    F6  :  07;
    F7  :  07;
    F8  :  07;
    F9  :  07;
    FA  :  07;
    FB  :  07;
    FC  :  07;
    FD  :  07;
    FE  :  07;
    FF  :  07;
    100  :  07;
    101  :  07;
    102  :  07;
    103  :  07;
    104  :  03;
    105  :  03;
    106  :  03;
    107  :  03;
    108  :  03;
    109  :  03;
    10A  :  03;
    10B  :  03;
    10C  :  03;
    10D  :  03;
    10E  :  03;
    10F  :  03;
    110  :  03;
    111  :  03;
    112  :  03;
    113  :  03;
    114  :  03;
    115  :  03;
    116  :  03;
    117  :  03;
    118  :  03;
    119  :  03;
    11A  :  01;
    11B  :  03;
    11C  :  01;
    11D  :  00;
    11E  :  00;
    11F  :  03;
    120  :  03;
    121  :  03;
    122  :  03;
    123  :  03;
    124  :  01;
    125  :  01;
    126  :  01;
    127  :  01;
    128  :  03;
    129  :  03;
    12A  :  03;
    12B  :  03;
    12C  :  03;
    12D  :  03;
    12E  :  03;
    12F  :  01;
    130  :  03;
    131  :  01;
    132  :  01;
    133  :  01;
    134  :  03;
    135  :  03;
    136  :  03;
    137  :  00;
    138  :  03;
    139  :  03;
    13A  :  03;
    13B  :  01;
    13C  :  00;
    13D  :  01;
    13E  :  00;
    13F  :  03;
    140  :  03;
    141  :  01;
    142  :  01;
    143  :  01;
    144  :  01;
    145  :  01;
    146  :  01;
    147  :  01;
    148  :  03;
    149  :  03;
    14A  :  03;
    14B  :  00;
    14C  :  03;
    14D  :  03;
    14E  :  03;
    14F  :  01;
    150  :  00;
    151  :  01;
    152  :  00;
    153  :  03;
    154  :  03;
    155  :  03;
    156  :  03;
    157  :  01;
    158  :  03;
    159  :  01;
    15A  :  01;
    15B  :  01;
    15C  :  03;
    15D  :  03;
    15E  :  03;
    15F  :  03;
    160  :  01;
    161  :  01;
    162  :  01;
    163  :  01;
    164  :  03;
    165  :  03;
    166  :  03;
    167  :  03;
    168  :  03;
    169  :  03;
    16A  :  01;
    16B  :  03;
    16C  :  01;
    16D  :  00;
    16E  :  00;
    16F  :  03;
    170  :  03;
    171  :  03;
    172  :  03;
    173  :  03;
    174  :  03;
    175  :  03;
    176  :  03;
    177  :  03;
    178  :  03;
    179  :  03;
    17A  :  03;
    17B  :  03;
    17C  :  03;
    17D  :  03;
    17E  :  03;
    17F  :  03;
    180  :  03;
    181  :  03;
    182  :  03;
    183  :  03;
    184  :  03;
    185  :  03;
END;
