WIDTH=8;
DEPTH=720;

ADDRESS_RADIX=HEX;
DATA_RADIX=HEX;

CONTENT BEGIN
    00  :  07;
    01  :  07;
    02  :  07;
    03  :  07;
    04  :  07;
    05  :  07;
    06  :  07;
    07  :  07;
    08  :  07;
    09  :  05;
    0A  :  05;
    0B  :  05;
    0C  :  05;
    0D  :  05;
    0E  :  05;
    0F  :  05;
    10  :  07;
    11  :  07;
    12  :  07;
    13  :  07;
    14  :  07;
    15  :  07;
    16  :  07;
    17  :  07;
    18  :  07;
    19  :  07;
    1A  :  07;
    1B  :  07;
    1C  :  05;
    1D  :  05;
    1E  :  05;
    1F  :  07;
    20  :  07;
    21  :  07;
    22  :  07;
    23  :  07;
    24  :  07;
    25  :  07;
    26  :  07;
    27  :  07;
    28  :  07;
    29  :  07;
    2A  :  07;
    2B  :  05;
    2C  :  05;
    2D  :  05;
    2E  :  07;
    2F  :  07;
    30  :  07;
    31  :  07;
    32  :  07;
    33  :  07;
    34  :  07;
    35  :  07;
    36  :  07;
    37  :  05;
    38  :  05;
    39  :  00;
    3A  :  05;
    3B  :  05;
    3C  :  05;
    3D  :  07;
    3E  :  07;
    3F  :  07;
    40  :  07;
    41  :  07;
    42  :  07;
    43  :  07;
    44  :  07;
    45  :  07;
    46  :  07;
    47  :  07;
    48  :  00;
    49  :  05;
    4A  :  05;
    4B  :  05;
    4C  :  05;
    4D  :  07;
    4E  :  07;
    4F  :  07;
    50  :  07;
    51  :  07;
    52  :  07;
    53  :  07;
    54  :  07;
    55  :  07;
    56  :  07;
    57  :  05;
    58  :  05;
    59  :  05;
    5A  :  05;
    5B  :  05;
    5C  :  07;
    5D  :  07;
    5E  :  07;
    5F  :  07;
    60  :  07;
    61  :  07;
    62  :  07;
    63  :  05;
    64  :  05;
    65  :  05;
    66  :  05;
    67  :  05;
    68  :  05;
    69  :  07;
    6A  :  07;
    6B  :  05;
    6C  :  05;
    6D  :  05;
    6E  :  07;
    6F  :  07;
    70  :  05;
    71  :  05;
    72  :  05;
    73  :  05;
    74  :  05;
    75  :  05;
    76  :  05;
    77  :  05;
    78  :  07;
    79  :  07;
    7A  :  05;
    7B  :  05;
    7C  :  05;
    7D  :  05;
    7E  :  05;
    7F  :  05;
    80  :  07;
    81  :  07;
    82  :  07;
    83  :  05;
    84  :  05;
    85  :  05;
    86  :  05;
    87  :  05;
    88  :  05;
    89  :  07;
    8A  :  07;
    8B  :  05;
    8C  :  05;
    8D  :  05;
    8E  :  07;
    8F  :  07;
    90  :  07;
    91  :  07;
    92  :  07;
    93  :  07;
    94  :  07;
    95  :  07;
    96  :  07;
    97  :  05;
    98  :  05;
    99  :  05;
    9A  :  05;
    9B  :  05;
    9C  :  07;
    9D  :  07;
    9E  :  07;
    9F  :  07;
    A0  :  07;
    A1  :  07;
    A2  :  07;
    A3  :  07;
    A4  :  07;
    A5  :  07;
    A6  :  07;
    A7  :  07;
    A8  :  00;
    A9  :  05;
    AA  :  05;
    AB  :  05;
    AC  :  05;
    AD  :  07;
    AE  :  07;
    AF  :  07;
    B0  :  07;
    B1  :  07;
    B2  :  07;
    B3  :  07;
    B4  :  07;
    B5  :  07;
    B6  :  07;
    B7  :  05;
    B8  :  05;
    B9  :  00;
    BA  :  05;
    BB  :  05;
    BC  :  05;
    BD  :  07;
    BE  :  07;
    BF  :  07;
    C0  :  07;
    C1  :  07;
    C2  :  07;
    C3  :  07;
    C4  :  07;
    C5  :  07;
    C6  :  07;
    C7  :  07;
    C8  :  07;
    C9  :  07;
    CA  :  07;
    CB  :  05;
    CC  :  05;
    CD  :  05;
    CE  :  07;
    CF  :  07;
    D0  :  07;
    D1  :  07;
    D2  :  07;
    D3  :  07;
    D4  :  07;
    D5  :  07;
    D6  :  07;
    D7  :  07;
    D8  :  07;
    D9  :  07;
    DA  :  07;
    DB  :  07;
    DC  :  05;
    DD  :  05;
    DE  :  05;
    DF  :  07;
    E0  :  07;
    E1  :  07;
    E2  :  07;
    E3  :  07;
    E4  :  07;
    E5  :  07;
    E6  :  07;
    E7  :  07;
    E8  :  07;
    E9  :  05;
    EA  :  05;
    EB  :  05;
    EC  :  05;
    ED  :  05;
    EE  :  05;
    EF  :  05;
    F0  :  07;
    F1  :  07;
    F2  :  07;
    F3  :  07;
    F4  :  07;
    F5  :  07;
    F6  :  07;
    F7  :  01;
    F8  :  01;
    F9  :  05;
    FA  :  05;
    FB  :  05;
    FC  :  05;
    FD  :  05;
    FE  :  05;
    FF  :  05;
    100  :  07;
    101  :  07;
    102  :  07;
    103  :  07;
    104  :  07;
    105  :  07;
    106  :  07;
    107  :  07;
    108  :  07;
    109  :  07;
    10A  :  07;
    10B  :  07;
    10C  :  05;
    10D  :  05;
    10E  :  05;
    10F  :  07;
    110  :  07;
    111  :  07;
    112  :  07;
    113  :  07;
    114  :  07;
    115  :  07;
    116  :  07;
    117  :  07;
    118  :  07;
    119  :  07;
    11A  :  07;
    11B  :  05;
    11C  :  05;
    11D  :  05;
    11E  :  07;
    11F  :  07;
    120  :  07;
    121  :  07;
    122  :  07;
    123  :  07;
    124  :  07;
    125  :  01;
    126  :  01;
    127  :  05;
    128  :  05;
    129  :  04;
    12A  :  05;
    12B  :  05;
    12C  :  05;
    12D  :  07;
    12E  :  07;
    12F  :  07;
    130  :  07;
    131  :  07;
    132  :  07;
    133  :  07;
    134  :  07;
    135  :  07;
    136  :  07;
    137  :  07;
    138  :  04;
    139  :  05;
    13A  :  05;
    13B  :  05;
    13C  :  05;
    13D  :  01;
    13E  :  01;
    13F  :  07;
    140  :  07;
    141  :  07;
    142  :  07;
    143  :  07;
    144  :  07;
    145  :  07;
    146  :  07;
    147  :  05;
    148  :  05;
    149  :  05;
    14A  :  05;
    14B  :  05;
    14C  :  01;
    14D  :  01;
    14E  :  01;
    14F  :  07;
    150  :  07;
    151  :  07;
    152  :  07;
    153  :  05;
    154  :  05;
    155  :  05;
    156  :  05;
    157  :  05;
    158  :  05;
    159  :  01;
    15A  :  01;
    15B  :  05;
    15C  :  05;
    15D  :  05;
    15E  :  07;
    15F  :  07;
    160  :  05;
    161  :  05;
    162  :  05;
    163  :  05;
    164  :  05;
    165  :  05;
    166  :  05;
    167  :  05;
    168  :  01;
    169  :  01;
    16A  :  05;
    16B  :  05;
    16C  :  05;
    16D  :  05;
    16E  :  05;
    16F  :  05;
    170  :  07;
    171  :  07;
    172  :  07;
    173  :  05;
    174  :  05;
    175  :  05;
    176  :  05;
    177  :  05;
    178  :  05;
    179  :  01;
    17A  :  01;
    17B  :  05;
    17C  :  05;
    17D  :  05;
    17E  :  07;
    17F  :  07;
    180  :  07;
    181  :  07;
    182  :  07;
    183  :  07;
    184  :  07;
    185  :  07;
    186  :  07;
    187  :  05;
    188  :  05;
    189  :  05;
    18A  :  05;
    18B  :  05;
    18C  :  01;
    18D  :  01;
    18E  :  01;
    18F  :  07;
    190  :  07;
    191  :  07;
    192  :  07;
    193  :  07;
    194  :  07;
    195  :  07;
    196  :  07;
    197  :  07;
    198  :  04;
    199  :  05;
    19A  :  05;
    19B  :  05;
    19C  :  05;
    19D  :  01;
    19E  :  01;
    19F  :  07;
    1A0  :  07;
    1A1  :  07;
    1A2  :  07;
    1A3  :  07;
    1A4  :  07;
    1A5  :  01;
    1A6  :  01;
    1A7  :  05;
    1A8  :  05;
    1A9  :  04;
    1AA  :  05;
    1AB  :  05;
    1AC  :  05;
    1AD  :  07;
    1AE  :  07;
    1AF  :  07;
    1B0  :  07;
    1B1  :  07;
    1B2  :  07;
    1B3  :  07;
    1B4  :  07;
    1B5  :  07;
    1B6  :  07;
    1B7  :  07;
    1B8  :  07;
    1B9  :  07;
    1BA  :  07;
    1BB  :  05;
    1BC  :  05;
    1BD  :  05;
    1BE  :  07;
    1BF  :  07;
    1C0  :  07;
    1C1  :  07;
    1C2  :  07;
    1C3  :  07;
    1C4  :  07;
    1C5  :  07;
    1C6  :  07;
    1C7  :  07;
    1C8  :  07;
    1C9  :  07;
    1CA  :  07;
    1CB  :  07;
    1CC  :  05;
    1CD  :  05;
    1CE  :  05;
    1CF  :  07;
    1D0  :  07;
    1D1  :  07;
    1D2  :  07;
    1D3  :  07;
    1D4  :  07;
    1D5  :  07;
    1D6  :  07;
    1D7  :  01;
    1D8  :  01;
    1D9  :  05;
    1DA  :  05;
    1DB  :  05;
    1DC  :  05;
    1DD  :  05;
    1DE  :  05;
    1DF  :  05;
    1E0  :  03;
    1E1  :  03;
    1E2  :  03;
    1E3  :  03;
    1E4  :  03;
    1E5  :  03;
    1E6  :  03;
    1E7  :  00;
    1E8  :  00;
    1E9  :  02;
    1EA  :  02;
    1EB  :  02;
    1EC  :  02;
    1ED  :  02;
    1EE  :  02;
    1EF  :  02;
    1F0  :  03;
    1F1  :  03;
    1F2  :  03;
    1F3  :  03;
    1F4  :  03;
    1F5  :  03;
    1F6  :  03;
    1F7  :  03;
    1F8  :  03;
    1F9  :  03;
    1FA  :  03;
    1FB  :  03;
    1FC  :  02;
    1FD  :  02;
    1FE  :  02;
    1FF  :  03;
    200  :  03;
    201  :  03;
    202  :  03;
    203  :  03;
    204  :  03;
    205  :  03;
    206  :  03;
    207  :  03;
    208  :  03;
    209  :  03;
    20A  :  03;
    20B  :  02;
    20C  :  02;
    20D  :  02;
    20E  :  03;
    20F  :  03;
    210  :  03;
    211  :  03;
    212  :  03;
    213  :  03;
    214  :  03;
    215  :  00;
    216  :  00;
    217  :  02;
    218  :  02;
    219  :  03;
    21A  :  02;
    21B  :  02;
    21C  :  02;
    21D  :  03;
    21E  :  03;
    21F  :  03;
    220  :  03;
    221  :  03;
    222  :  03;
    223  :  03;
    224  :  03;
    225  :  03;
    226  :  03;
    227  :  03;
    228  :  03;
    229  :  02;
    22A  :  02;
    22B  :  02;
    22C  :  02;
    22D  :  00;
    22E  :  00;
    22F  :  03;
    230  :  03;
    231  :  03;
    232  :  03;
    233  :  03;
    234  :  03;
    235  :  03;
    236  :  03;
    237  :  02;
    238  :  02;
    239  :  02;
    23A  :  02;
    23B  :  02;
    23C  :  00;
    23D  :  00;
    23E  :  00;
    23F  :  03;
    240  :  03;
    241  :  03;
    242  :  03;
    243  :  02;
    244  :  02;
    245  :  02;
    246  :  02;
    247  :  02;
    248  :  02;
    249  :  00;
    24A  :  00;
    24B  :  02;
    24C  :  02;
    24D  :  02;
    24E  :  03;
    24F  :  03;
    250  :  02;
    251  :  02;
    252  :  02;
    253  :  02;
    254  :  02;
    255  :  02;
    256  :  02;
    257  :  02;
    258  :  00;
    259  :  00;
    25A  :  02;
    25B  :  02;
    25C  :  02;
    25D  :  02;
    25E  :  02;
    25F  :  02;
    260  :  03;
    261  :  03;
    262  :  03;
    263  :  02;
    264  :  02;
    265  :  02;
    266  :  02;
    267  :  02;
    268  :  02;
    269  :  00;
    26A  :  00;
    26B  :  02;
    26C  :  02;
    26D  :  02;
    26E  :  03;
    26F  :  03;
    270  :  03;
    271  :  03;
    272  :  03;
    273  :  03;
    274  :  03;
    275  :  03;
    276  :  03;
    277  :  02;
    278  :  02;
    279  :  02;
    27A  :  02;
    27B  :  02;
    27C  :  00;
    27D  :  00;
    27E  :  00;
    27F  :  03;
    280  :  03;
    281  :  03;
    282  :  03;
    283  :  03;
    284  :  03;
    285  :  03;
    286  :  03;
    287  :  03;
    288  :  03;
    289  :  02;
    28A  :  02;
    28B  :  02;
    28C  :  02;
    28D  :  00;
    28E  :  00;
    28F  :  03;
    290  :  03;
    291  :  03;
    292  :  03;
    293  :  03;
    294  :  03;
    295  :  00;
    296  :  00;
    297  :  02;
    298  :  02;
    299  :  03;
    29A  :  02;
    29B  :  02;
    29C  :  02;
    29D  :  03;
    29E  :  03;
    29F  :  03;
    2A0  :  03;
    2A1  :  03;
    2A2  :  03;
    2A3  :  03;
    2A4  :  03;
    2A5  :  03;
    2A6  :  03;
    2A7  :  03;
    2A8  :  03;
    2A9  :  03;
    2AA  :  03;
    2AB  :  02;
    2AC  :  02;
    2AD  :  02;
    2AE  :  03;
    2AF  :  03;
    2B0  :  03;
    2B1  :  03;
    2B2  :  03;
    2B3  :  03;
    2B4  :  03;
    2B5  :  03;
    2B6  :  03;
    2B7  :  03;
    2B8  :  03;
    2B9  :  03;
    2BA  :  03;
    2BB  :  03;
    2BC  :  02;
    2BD  :  02;
    2BE  :  02;
    2BF  :  03;
    2C0  :  03;
    2C1  :  03;
    2C2  :  03;
    2C3  :  03;
    2C4  :  03;
    2C5  :  03;
    2C6  :  03;
    2C7  :  00;
    2C8  :  00;
    2C9  :  02;
    2CA  :  02;
    2CB  :  02;
    2CC  :  02;
    2CD  :  02;
    2CE  :  02;
    2CF  :  02;
END;
